Version 4.1
SHEET 1 880 680
WIRE 128 80 -32 80
WIRE 208 80 128 80
WIRE 528 80 304 80
WIRE 528 128 528 80
WIRE 128 144 128 80
WIRE -32 160 -32 80
WIRE 128 240 128 224
WIRE 256 240 256 144
WIRE 256 240 128 240
WIRE 256 304 256 240
WIRE -32 352 -32 240
FLAG 256 368 0
FLAG 528 208 0
FLAG -32 432 0
DATAFLAG 16 80 ""
DATAFLAG 432 80 ""
DATAFLAG 256 240 ""
SYMBOL voltage -32 144 R0
WINDOW 123 24 130 Left 2
WINDOW 39 0 0 Left 0
SYMATTR InstName V1
SYMATTR Value 9.5
SYMATTR Value2 AC 1
SYMBOL npn 208 144 R270
SYMATTR InstName Q1
SYMATTR Value 2N2222
SYMBOL zener 272 368 R180
WINDOW 0 24 64 Left 2
WINDOW 3 -213 20 Left 2
SYMATTR InstName D1
SYMATTR Value BZX84C6V2L
SYMBOL res 112 128 R0
SYMATTR InstName R1
SYMATTR Value 10k
SYMBOL res 512 112 R0
SYMATTR InstName R2
SYMATTR Value 1k
SYMBOL voltage -32 336 R0
WINDOW 3 40 119 Left 2
WINDOW 123 -338 -62 Left 2
WINDOW 39 0 0 Left 0
SYMATTR InstName V2
SYMATTR Value SINE(0 0.5 50 0 0 0 1000000)
SYMATTR Value2 AC 1
TEXT 424 -64 Left 2 !.tran 0 1 0 0.001
TEXT -168 400 Left 2 ;Ruido
TEXT -200 200 Left 2 ;Continua
TEXT -88 32 Left 2 ;Tension de entrada
TEXT 352 32 Left 2 ;Tensiˇn regulada
TEXT 264 264 Left 2 ;Tensiˇn de Referencia
